<?xml version="1.0" encoding="UTF-8"?>

<!-- generated on 2017/11/22 16:42:10 by Netedit Version 0.31.0
<?xml version="1.0" encoding="UTF-8"?>

<configuration xmlns:xsi="http://www.w3.org/2001/XMLSchema-instance" xsi:noNamespaceSchemaLocation="http://sumo.dlr.de/xsd/netconvertConfiguration.xsd">

    <input>
        <sumo-net-file value="E:\Dropbox\SUMO\osm\douai-simple-car\test\Project_orio_1\douai_multimodels.net.xml"/>
    </input>

    <output>
        <output-file value="E:\Dropbox\SUMO\osm\douai-simple-car\test\Project_orio_1\douai_multimodels.net.xml"/>
    </output>

    <processing>
        <no-internal-links value="false"/>
        <no-turnarounds value="true"/>
        <offset.disable-normalization value="true"/>
        <lefthand value="false"/>
        <junctions.corner-detail value="0"/>
        <rectangular-lane-cut value="false"/>
        <walkingareas value="false"/>
    </processing>

</configuration>
-->

<net version="0.27" xmlns:xsi="http://www.w3.org/2001/XMLSchema-instance" xsi:noNamespaceSchemaLocation="http://sumo.dlr.de/xsd/net_file.xsd">

    <location netOffset="-504614.94,-5579826.44" convBoundary="0.00,0.00,1117.88,1052.43" origBoundary="3.064894,50.370482,3.080622,50.379943" projParameter="+proj=utm +zone=31 +ellps=WGS84 +datum=WGS84 +units=m +no_defs"/>

    <type id="highway.bridleway" priority="1" numLanes="1" speed="2.78" allow="pedestrian" oneway="1" width="2.00"/>
    <type id="highway.bus_guideway" priority="1" numLanes="1" speed="8.33" allow="bus" oneway="1"/>
    <type id="highway.cycleway" priority="1" numLanes="1" speed="5.56" allow="bicycle" oneway="0" width="1.00"/>
    <type id="highway.footway" priority="1" numLanes="1" speed="2.78" allow="pedestrian" oneway="1" width="2.00"/>
    <type id="highway.ford" priority="1" numLanes="1" speed="2.78" allow="army" oneway="0"/>
    <type id="highway.living_street" priority="3" numLanes="1" speed="2.78" disallow="tram rail_urban rail rail_electric ship" oneway="0"/>
    <type id="highway.motorway" priority="13" numLanes="2" speed="44.44" allow="private emergency authority army vip passenger hov taxi bus coach delivery truck trailer motorcycle evehicle custom1 custom2" oneway="1"/>
    <type id="highway.motorway_link" priority="12" numLanes="1" speed="22.22" allow="private emergency authority army vip passenger hov taxi bus coach delivery truck trailer motorcycle evehicle custom1 custom2" oneway="1"/>
    <type id="highway.path" priority="1" numLanes="1" speed="2.78" allow="bicycle pedestrian" oneway="1" width="2.00"/>
    <type id="highway.pedestrian" priority="1" numLanes="1" speed="2.78" allow="pedestrian" oneway="1" width="2.00"/>
    <type id="highway.primary" priority="9" numLanes="2" speed="27.78" disallow="tram rail_urban rail rail_electric ship" oneway="0"/>
    <type id="highway.primary_link" priority="8" numLanes="1" speed="22.22" disallow="tram rail_urban rail rail_electric ship" oneway="0"/>
    <type id="highway.raceway" priority="14" numLanes="2" speed="83.33" allow="vip" oneway="0"/>
    <type id="highway.residential" priority="4" numLanes="1" speed="13.89" disallow="tram rail_urban rail rail_electric ship" oneway="0"/>
    <type id="highway.secondary" priority="7" numLanes="2" speed="27.78" disallow="tram rail_urban rail rail_electric ship" oneway="0"/>
    <type id="highway.secondary_link" priority="6" numLanes="1" speed="22.22" disallow="tram rail_urban rail rail_electric ship" oneway="0"/>
    <type id="highway.service" priority="2" numLanes="1" speed="5.56" allow="delivery bicycle pedestrian" oneway="0"/>
    <type id="highway.services" priority="1" numLanes="1" speed="8.33" disallow="tram rail_urban rail rail_electric ship" oneway="0"/>
    <type id="highway.stairs" priority="1" numLanes="1" speed="1.39" allow="pedestrian" oneway="1" width="2.00"/>
    <type id="highway.step" priority="1" numLanes="1" speed="1.39" allow="pedestrian" oneway="1" width="2.00"/>
    <type id="highway.steps" priority="1" numLanes="1" speed="1.39" allow="pedestrian" oneway="1" width="2.00"/>
    <type id="highway.tertiary" priority="6" numLanes="1" speed="22.22" disallow="tram rail_urban rail rail_electric ship" oneway="0"/>
    <type id="highway.tertiary_link" priority="5" numLanes="1" speed="22.22" disallow="tram rail_urban rail rail_electric ship" oneway="0"/>
    <type id="highway.track" priority="1" numLanes="1" speed="5.56" disallow="tram rail_urban rail rail_electric ship" oneway="0"/>
    <type id="highway.trunk" priority="11" numLanes="2" speed="27.78" disallow="tram rail_urban rail rail_electric bicycle pedestrian ship" oneway="0"/>
    <type id="highway.trunk_link" priority="10" numLanes="1" speed="22.22" disallow="tram rail_urban rail rail_electric bicycle pedestrian ship" oneway="0"/>
    <type id="highway.unclassified" priority="5" numLanes="1" speed="13.89" disallow="tram rail_urban rail rail_electric ship" oneway="0"/>
    <type id="highway.unsurfaced" priority="1" numLanes="1" speed="8.33" disallow="tram rail_urban rail rail_electric ship" oneway="0"/>
    <type id="railway.light_rail" priority="15" numLanes="1" speed="27.78" allow="rail_urban" oneway="1"/>
    <type id="railway.preserved" priority="15" numLanes="1" speed="27.78" allow="rail" oneway="1"/>
    <type id="railway.rail" priority="15" numLanes="1" speed="83.33" allow="rail rail_electric" oneway="1"/>
    <type id="railway.subway" priority="15" numLanes="1" speed="27.78" allow="rail_urban" oneway="1"/>
    <type id="railway.tram" priority="15" numLanes="1" speed="13.89" allow="tram" oneway="1"/>

    <edge id=":1055293037_0" function="internal">
        <lane id=":1055293037_0_0" index="0" disallow="tram rail_urban rail rail_electric pedestrian ship" speed="9.73" length="5.00" shape="449.88,345.29 449.04,344.21 448.75,343.12 449.00,342.02 449.81,340.91"/>
    </edge>
    <edge id=":1055293037_1" function="internal">
        <lane id=":1055293037_1_0" index="0" disallow="tram rail_urban rail rail_electric pedestrian ship" speed="13.89" length="6.18" shape="445.48,345.33 449.81,340.91"/>
    </edge>
    <edge id=":1055293037_w0" function="walkingarea">
        <lane id=":1055293037_w0_0" index="0" allow="pedestrian" speed="1.00" length="4.40" width="3.20" shape="444.35,344.20 446.62,346.45 448.77,346.45 450.99,344.14"/>
    </edge>
    <edge id=":1145155292_0" function="internal">
        <lane id=":1145155292_0_0" index="0" disallow="rail rail_electric ship" speed="27.78" length="4.11" shape="233.51,290.26 232.95,289.31 232.53,288.68 232.04,288.10 231.26,287.32"/>
        <lane id=":1145155292_0_1" index="1" disallow="rail rail_electric ship" speed="27.78" length="4.11" shape="236.31,288.51 235.63,287.36 235.11,286.60 234.52,285.91 233.58,284.97"/>
    </edge>
    <edge id=":1145155292_2" function="internal">
        <lane id=":1145155292_2_0" index="0" disallow="rail rail_electric ship" speed="27.78" length="5.13" shape="236.31,288.51 234.51,285.33 233.88,284.00"/>
    </edge>
    <edge id=":1145155292_6" function="internal">
        <lane id=":1145155292_6_0" index="0" speed="27.78" length="2.46" shape="233.88,284.00 233.53,283.26 233.35,282.28 233.99,282.40"/>
    </edge>
    <edge id=":1145155292_3" function="internal">
        <lane id=":1145155292_3_0" index="0" disallow="rail rail_electric ship" speed="27.78" length="4.59" shape="238.20,280.26 239.72,281.80 240.75,282.86 241.84,283.85 243.55,285.17"/>
        <lane id=":1145155292_3_1" index="1" disallow="rail rail_electric ship" speed="27.78" length="4.59" shape="235.89,282.61 233.99,282.40"/>
    </edge>
    <edge id=":1145155292_5" function="internal">
        <lane id=":1145155292_5_0" index="0" disallow="rail rail_electric ship" speed="27.78" length="2.41" shape="235.89,282.61 236.19,284.07 235.91,284.95"/>
    </edge>
    <edge id=":1145155292_7" function="internal">
        <lane id=":1145155292_7_0" index="0" speed="27.78" length="2.41" shape="235.91,284.95 235.04,285.25 233.58,284.97"/>
    </edge>
    <edge id=":1145155292_w0" function="walkingarea">
        <lane id=":1145155292_w0_0" index="0" allow="pedestrian" speed="1.00" length="9.27" width="3.20" shape="232.14,291.08 234.89,289.44 234.93,289.32 237.69,287.69 233.13,283.75 234.85,281.05 242.60,286.46 244.49,283.88 239.33,279.12 237.08,281.40 237.01,281.47 234.77,283.76 234.70,283.83 232.46,286.11 232.39,286.18 230.14,288.46"/>
    </edge>
    <edge id=":1145155306_0" function="internal">
        <lane id=":1145155306_0_0" index="0" disallow="rail rail_electric ship" speed="27.78" length="1.58" shape="235.00,292.76 234.99,292.61 234.93,292.52 234.83,292.44 234.73,292.31"/>
        <lane id=":1145155306_0_1" index="1" disallow="rail rail_electric ship" speed="27.78" length="1.58" shape="238.29,293.06 238.32,292.30 238.22,291.78 237.97,291.29 237.57,290.63"/>
    </edge>
    <edge id=":1145155306_w0" function="walkingarea">
        <lane id=":1145155306_w0_0" index="0" allow="pedestrian" speed="1.00" length="0.53" width="3.20" shape="238.95,289.81 236.19,291.44 236.11,291.50 233.35,293.13 233.41,292.59 236.59,292.93 236.70,292.89 239.88,293.24"/>
    </edge>
    <edge id=":1148807627_0" function="internal">
        <lane id=":1148807627_0_0" index="0" disallow="rail rail_electric ship" speed="18.06" length="6.06" shape="881.46,675.27 879.86,676.21 879.27,677.22 879.70,678.30 881.15,679.46"/>
    </edge>
    <edge id=":1148807627_1" function="internal">
        <lane id=":1148807627_1_0" index="0" disallow="rail rail_electric ship" speed="22.22" length="9.02" shape="881.46,675.27 873.31,679.13"/>
    </edge>
    <edge id=":1148807627_2" function="internal">
        <lane id=":1148807627_2_0" index="0" disallow="rail rail_electric ship" speed="13.89" length="6.20" shape="875.91,676.15 881.15,679.46"/>
    </edge>
    <edge id=":1148807627_3" function="internal">
        <lane id=":1148807627_3_0" index="0" disallow="rail rail_electric ship" speed="18.06" length="4.54" shape="875.91,676.15 876.24,676.68 875.92,677.35 874.94,678.17 873.31,679.13"/>
    </edge>
    <edge id=":1148807627_w0" function="walkingarea">
        <lane id=":1148807627_w0_0" index="0" allow="pedestrian" speed="1.00" length="6.14" width="3.20" shape="880.31,680.83 881.98,678.10 882.09,676.74 880.84,673.80 876.83,674.84 874.99,677.46 872.57,677.72 874.06,680.55"/>
    </edge>
    <edge id=":1148807647_0" function="internal">
        <lane id=":1148807647_0_0" index="0" disallow="rail rail_electric ship" speed="17.61" length="5.65" shape="858.23,666.31 859.51,665.23 860.31,664.40 860.98,663.46 861.84,662.03"/>
    </edge>
    <edge id=":1148807647_1" function="internal">
        <lane id=":1148807647_1_0" index="0" disallow="rail rail_electric ship" speed="18.06" length="4.87" shape="858.23,666.31 859.31,665.65 860.41,665.43 861.54,665.65 862.70,666.31"/>
    </edge>
    <edge id=":1148807647_w0" function="walkingarea">
        <lane id=":1148807647_w0_0" index="0" allow="pedestrian" speed="1.00" length="4.81" width="3.20" shape="861.73,667.59 863.66,665.03 863.22,662.84 860.46,661.22 857.21,665.07 859.25,667.54"/>
    </edge>
    <edge id=":1148886785_0" function="internal">
        <lane id=":1148886785_0_0" index="0" allow="bus tram rail_urban" speed="5.56" length="15.25" shape="1001.44,622.64 986.61,626.23"/>
    </edge>
    <edge id=":1148886785_1" function="internal">
        <lane id=":1148886785_1_0" index="0" disallow="rail rail_electric ship" speed="22.22" length="15.24" shape="999.48,619.29 996.80,621.97 994.02,624.61 991.18,627.18 988.31,629.66"/>
    </edge>
    <edge id=":1148886785_2" function="internal">
        <lane id=":1148886785_2_0" index="0" disallow="rail rail_electric ship" speed="18.06" length="10.00" shape="991.99,621.32 992.67,623.03 992.28,624.99 990.83,627.20 988.31,629.66"/>
    </edge>
    <edge id=":1148886785_w0" function="walkingarea">
        <lane id=":1148886785_w0_0" index="0" allow="pedestrian" speed="1.00" length="7.76" width="3.20" shape="1000.62,620.40 998.33,618.17 993.26,620.35 990.71,622.29"/>
    </edge>
    <edge id=":1149236254_0" function="internal">
        <lane id=":1149236254_0_0" index="0" disallow="rail rail_electric ship" speed="13.89" length="0.10" shape="273.83,277.22 273.83,277.22"/>
    </edge>
    <edge id=":1149236260_0" function="internal">
        <lane id=":1149236260_0_0" index="0" disallow="rail rail_electric ship" speed="13.89" length="8.22" shape="265.59,305.54 265.08,307.93 264.80,309.67 265.05,311.31 266.10,313.41"/>
    </edge>
    <edge id=":1149236260_w0" function="walkingarea">
        <lane id=":1149236260_w0_0" index="0" allow="pedestrian" speed="1.00" length="6.61" width="3.20" shape="264.74,314.25 267.47,312.57 269.36,307.68 267.96,306.25 267.16,305.83 264.02,305.25 261.48,312.59 262.88,314.02"/>
    </edge>
    <edge id=":1174327901_0" function="internal">
        <lane id=":1174327901_0_0" index="0" allow="bus tram rail_urban" speed="8.33" length="0.91" shape="473.31,327.10 472.64,326.48"/>
    </edge>
    <edge id=":1174327901_1" function="internal">
        <lane id=":1174327901_1_0" index="0" disallow="tram rail_urban rail rail_electric ship" speed="18.06" length="3.93" shape="473.31,327.10 473.95,327.46 474.44,327.18 474.78,326.23 474.97,324.62"/>
    </edge>
    <edge id=":1174327901_2" function="internal">
        <lane id=":1174327901_2_0" index="0" disallow="tram rail_urban rail rail_electric ship" speed="18.06" length="0.52" shape="475.25,324.40 475.14,324.33 475.05,324.34 475.00,324.44 474.97,324.62"/>
    </edge>
    <edge id=":1174327901_3" function="internal">
        <lane id=":1174327901_3_0" index="0" allow="bus tram rail_urban" speed="8.33" length="0.50" shape="475.25,324.40 475.62,324.74"/>
    </edge>
    <edge id=":1174327901_4" function="internal">
        <lane id=":1174327901_4_0" index="0" allow="bus tram rail_urban" speed="18.06" length="3.77" shape="474.92,325.45 474.71,326.64 474.26,327.21 473.57,327.16 472.64,326.48"/>
    </edge>
    <edge id=":1174327901_5" function="internal">
        <lane id=":1174327901_5_0" index="0" disallow="tram rail_urban rail rail_electric ship" speed="27.78" length="0.83" shape="474.92,325.45 474.97,324.62"/>
    </edge>
    <edge id=":1174327901_6" function="internal">
        <lane id=":1174327901_6_0" index="0" allow="bus tram rail_urban" speed="18.06" length="1.42" shape="474.92,325.45 474.99,324.91 475.14,324.61 475.34,324.55 475.62,324.74"/>
    </edge>
    <edge id=":1174345648_0" function="internal">
        <lane id=":1174345648_0_0" index="0" disallow="tram rail_urban rail rail_electric pedestrian ship" speed="27.78" length="3.81" shape="830.83,666.09 833.47,668.84"/>
    </edge>
    <edge id=":1174345648_1" function="internal">
        <lane id=":1174345648_1_0" index="0" allow="bus tram rail_urban" speed="8.33" length="5.01" shape="829.04,667.91 830.45,668.34 831.46,668.47 832.49,668.40 833.96,668.19"/>
    </edge>
    <edge id=":1174351619_0" function="internal">
        <lane id=":1174351619_0_0" index="0" allow="bus tram rail_urban" speed="8.33" length="7.17" shape="834.81,684.16 832.93,683.17 831.68,682.41 830.53,681.51 828.96,680.08"/>
    </edge>
    <edge id=":1174351619_1" function="internal">
        <lane id=":1174351619_1_0" index="0" disallow="rail rail_electric ship" speed="27.78" length="3.76" shape="829.67,682.64 830.04,681.60 830.43,680.95 830.93,680.37 831.65,679.52"/>
        <lane id=":1174351619_1_1" index="1" disallow="rail rail_electric ship" speed="27.78" length="3.76" shape="832.54,684.57 832.89,683.52 833.24,682.83 833.71,682.21 834.42,681.34"/>
    </edge>
    <edge id=":1174351619_w0" function="walkingarea">
        <lane id=":1174351619_w0_0" index="0" allow="pedestrian" speed="1.00" length="0.10" width="3.20" shape="835.67,682.34 833.17,680.35 832.91,680.52 830.40,678.52"/>
    </edge>
    <edge id=":1174351619_w1" function="walkingarea">
        <lane id=":1174351619_w1_0" index="0" allow="pedestrian" speed="1.00" length="0.10" width="3.20" shape="828.14,682.18 831.21,683.09 831.01,684.12 834.08,685.02"/>
    </edge>
    <edge id=":1174351620_0" function="internal">
        <lane id=":1174351620_0_0" index="0" allow="bus tram rail_urban" speed="6.95" length="7.31" shape="859.60,680.92 852.85,683.72"/>
    </edge>
    <edge id=":1174351620_1" function="internal">
        <lane id=":1174351620_1_0" index="0" disallow="rail rail_electric ship" speed="27.78" length="2.56" shape="856.97,680.51 857.46,681.12 857.77,681.57 858.00,682.06 858.26,682.79"/>
        <lane id=":1174351620_1_1" index="1" disallow="rail rail_electric ship" speed="27.78" length="2.56" shape="853.87,681.91 854.34,682.47 854.66,682.86 854.92,683.30 855.18,683.97"/>
    </edge>
    <edge id=":1174351620_w0" function="walkingarea">
        <lane id=":1174351620_w0_0" index="0" allow="pedestrian" speed="1.00" length="0.10" width="3.20" shape="853.67,684.49 856.69,683.46 856.75,683.31 859.78,682.28"/>
    </edge>
    <edge id=":1174351620_w1" function="walkingarea">
        <lane id=":1174351620_w1_0" index="0" allow="pedestrian" speed="1.00" length="0.10" width="3.20" shape="858.22,679.50 855.73,681.51 855.11,680.90 852.62,682.91"/>
    </edge>
    <edge id=":1174353790_0" function="internal">
        <lane id=":1174353790_0_0" index="0" allow="bus tram rail_urban" speed="5.56" length="6.79" shape="875.78,673.49 869.59,676.28"/>
    </edge>
    <edge id=":1174353790_1" function="internal">
        <lane id=":1174353790_1_0" index="0" disallow="rail rail_electric ship" speed="13.89" length="3.47" shape="871.79,673.17 874.59,675.22"/>
    </edge>
    <edge id=":1201048164_0" function="internal">
        <lane id=":1201048164_0_0" index="0" allow="private passenger pedestrian" speed="5.56" length="6.20" shape="574.31,475.78 578.71,480.16"/>
    </edge>
    <edge id=":1201048164_1" function="internal">
        <lane id=":1201048164_1_0" index="0" allow="private passenger pedestrian" speed="5.56" length="5.06" shape="574.23,480.17 575.38,479.36 576.52,479.09 577.62,479.36 578.71,480.16"/>
    </edge>
    <edge id=":1201048164_w0" function="walkingarea">
        <lane id=":1201048164_w0_0" index="0" allow="pedestrian" speed="1.00" length="5.02" width="3.20" shape="577.58,481.29 579.84,479.02 575.44,474.65 573.18,476.92 573.14,478.99 575.31,481.35"/>
    </edge>
    <edge id=":1201048167_0" function="internal">
        <lane id=":1201048167_0_0" index="0" allow="private passenger pedestrian" speed="5.56" length="5.01" shape="545.44,447.09 546.54,447.91 547.63,448.18 548.74,447.90 549.84,447.08"/>
    </edge>
    <edge id=":1201048167_1" function="internal">
        <lane id=":1201048167_1_0" index="0" allow="private passenger pedestrian" speed="5.56" length="6.20" shape="545.44,447.09 549.84,451.46"/>
    </edge>
    <edge id=":1201048167_w0" function="walkingarea">
        <lane id=":1201048167_w0_0" index="0" allow="pedestrian" speed="1.00" length="4.99" width="3.20" shape="548.71,452.60 550.97,450.33 550.97,448.22 548.71,445.94 546.57,445.96 544.31,448.23"/>
    </edge>
    <edge id=":1201048171_0" function="internal">
        <lane id=":1201048171_0_0" index="0" allow="private passenger pedestrian" speed="5.56" length="6.20" shape="512.05,435.40 507.68,431.00"/>
    </edge>
    <edge id=":1201048171_1" function="internal">
        <lane id=":1201048171_1_0" index="0" allow="private passenger pedestrian" speed="5.56" length="5.00" shape="512.05,435.40 511.24,434.30 510.96,433.20 511.24,432.10 512.07,431.01"/>
    </edge>
    <edge id=":1201048171_w0" function="walkingarea">
        <lane id=":1201048171_w0_0" index="0" allow="pedestrian" speed="1.00" length="4.99" width="3.20" shape="510.92,436.52 513.19,434.27 513.20,432.14 510.93,429.88 508.81,429.87 506.55,432.13"/>
    </edge>
    <edge id=":1201048172_0" function="internal">
        <lane id=":1201048172_0_0" index="0" allow="pedestrian" speed="16.39" length="6.20" width="2.00" shape="569.26,432.15 564.84,427.80"/>
        <lane id=":1201048172_0_1" index="1" disallow="tram rail_urban rail rail_electric pedestrian ship" speed="16.39" length="6.20" shape="571.15,430.22 566.73,425.88"/>
    </edge>
    <edge id=":1201048172_2" function="internal">
        <lane id=":1201048172_2_0" index="0" disallow="tram rail_urban rail rail_electric pedestrian ship" speed="16.67" length="6.81" shape="565.27,431.76 566.75,430.01 567.49,428.45 567.48,427.07 566.73,425.88"/>
    </edge>
    <edge id=":1201048172_w0" function="walkingarea">
        <lane id=":1201048172_w0_0" index="0" allow="pedestrian" speed="1.00" length="4.73" width="3.20" shape="565.54,427.09 564.14,428.51 564.14,430.62 566.40,432.89 568.56,432.86 569.96,431.43"/>
    </edge>
    <edge id=":1201048176_0" function="internal">
        <lane id=":1201048176_0_0" index="0" allow="private passenger pedestrian" speed="5.56" length="2.77" shape="456.21,379.30 455.76,378.69 455.62,378.09 455.82,377.50 456.33,376.94"/>
    </edge>
    <edge id=":1201048179_0" function="internal">
        <lane id=":1201048179_0_0" index="0" allow="private passenger pedestrian" speed="5.56" length="7.76" shape="620.81,540.47 619.59,541.07 618.07,540.86 616.27,539.83 614.17,537.99"/>
    </edge>
    <edge id=":1201048179_w0" function="walkingarea">
        <lane id=":1201048179_w0_0" index="0" allow="pedestrian" speed="1.00" length="4.92" width="3.20" shape="621.90,541.64 619.72,539.30 619.65,539.23 617.46,536.89 615.31,536.86 613.04,539.12"/>
    </edge>
    <edge id=":1201048181_0" function="internal">
        <lane id=":1201048181_0_0" index="0" allow="private passenger pedestrian" speed="5.56" length="6.21" shape="560.52,440.86 556.12,436.47"/>
    </edge>
    <edge id=":1201048181_1" function="internal">
        <lane id=":1201048181_1_0" index="0" allow="private passenger pedestrian" speed="5.56" length="5.00" shape="560.52,440.86 559.69,439.77 559.42,438.67 559.70,437.58 560.52,436.48"/>
    </edge>
    <edge id=":1201048181_2" function="internal">
        <lane id=":1201048181_2_0" index="0" allow="private passenger pedestrian" speed="5.56" length="5.01" shape="556.11,440.86 556.94,439.76 557.22,438.67 556.94,437.57 556.12,436.47"/>
    </edge>
    <edge id=":1201048181_3" function="internal">
        <lane id=":1201048181_3_0" index="0" allow="private passenger pedestrian" speed="5.56" length="6.21" shape="556.11,440.86 560.52,436.48"/>
    </edge>
    <edge id=":1201048181_w0" function="walkingarea">
        <lane id=":1201048181_w0_0" index="0" allow="pedestrian" speed="1.00" length="5.00" width="3.20" shape="559.39,442.00 561.65,439.73 561.65,437.61 559.39,435.35 557.25,435.34 554.99,437.61 554.99,439.72 557.24,441.99"/>
    </edge>
    <edge id=":1201048182_0" function="internal">
        <lane id=":1201048182_0_0" index="0" allow="private passenger pedestrian" speed="5.56" length="6.15" shape="632.48,529.56 627.97,533.75"/>
    </edge>
    <edge id=":1201048182_1" function="internal">
        <lane id=":1201048182_1_0" index="0" allow="private passenger pedestrian" speed="5.56" length="5.05" shape="625.78,526.96 626.90,527.81 628.02,528.12 629.13,527.89 630.25,527.14"/>
    </edge>
    <edge id=":1201048182_2" function="internal">
        <lane id=":1201048182_2_0" index="0" allow="private passenger pedestrian" speed="5.56" length="7.95" shape="625.78,526.96 627.64,529.09 628.62,530.94 628.73,532.49 627.97,533.75"/>
    </edge>
    <edge id=":1201048182_3" function="internal">
        <lane id=":1201048182_3_0" index="0" allow="private passenger pedestrian" speed="5.56" length="6.19" shape="625.72,531.35 630.25,527.14"/>
    </edge>
    <edge id=":1201048182_w0" function="walkingarea">
        <lane id=":1201048182_w0_0" index="0" allow="pedestrian" speed="1.00" length="5.61" width="3.20" shape="633.57,530.74 631.40,528.39 631.33,528.31 629.17,525.96 626.91,525.83 624.65,528.09 624.62,530.18 626.81,532.51 626.88,532.59 629.07,534.92"/>
    </edge>
    <edge id=":1201048187_0" function="internal">
        <lane id=":1201048187_0_0" index="0" allow="private passenger pedestrian" speed="5.56" length="5.16" shape="642.79,520.45 641.54,521.33 640.72,521.98 639.94,522.69 638.82,523.74"/>
    </edge>
    <edge id=":1201048187_1" function="internal">
        <lane id=":1201048187_1_0" index="0" allow="private passenger pedestrian" speed="5.56" length="7.38" shape="642.79,520.45 641.83,520.62 640.49,520.09 638.78,518.86 636.68,516.92"/>
    </edge>
    <edge id=":1201048187_2" function="internal">
        <lane id=":1201048187_2_0" index="0" allow="private passenger pedestrian" speed="5.56" length="5.05" shape="636.59,521.31 637.47,520.23 637.78,519.14 637.51,518.04 636.68,516.92"/>
    </edge>
    <edge id=":1201048187_3" function="internal">
        <lane id=":1201048187_3_0" index="0" allow="private passenger pedestrian" speed="5.56" length="5.87" shape="636.59,521.31 637.87,520.13 638.78,519.35 639.77,518.68 641.26,517.79"/>
    </edge>
    <edge id=":1201048187_w0" function="walkingarea">
        <lane id=":1201048187_w0_0" index="0" allow="pedestrian" speed="1.00" length="5.33" width="3.20" shape="643.69,521.78 641.89,519.13 642.06,519.18 640.47,516.40 637.81,515.79 635.55,518.06 635.50,520.13 637.67,522.49 637.74,522.56 639.90,524.92"/>
    </edge>
    <edge id=":1201048188_0" function="internal">
        <lane id=":1201048188_0_0" index="0" allow="private passenger pedestrian" speed="5.56" length="4.98" shape="482.05,362.51 480.96,361.70 479.87,361.42 478.77,361.68 477.67,362.47"/>
    </edge>
    <edge id=":1201048188_1" function="internal">
        <lane id=":1201048188_1_0" index="0" allow="private passenger pedestrian" speed="5.56" length="4.98" shape="482.05,362.51 480.96,361.70 479.87,361.42 478.77,361.68 477.67,362.47"/>
    </edge>
    <edge id=":1201048188_w0" function="walkingarea">
        <lane id=":1201048188_w0_0" index="0" allow="pedestrian" speed="1.00" length="4.38" width="3.20" shape="480.92,363.65 483.18,361.38 476.56,361.32 478.78,363.63 476.56,361.32 478.78,363.63"/>
    </edge>
    <edge id=":1201048189_0" function="internal">
        <lane id=":1201048189_0_0" index="0" allow="private passenger pedestrian" speed="5.56" length="6.20" shape="518.44,420.25 522.83,424.62"/>
    </edge>
    <edge id=":1201048189_1" function="internal">
        <lane id=":1201048189_1_0" index="0" allow="private passenger pedestrian" speed="5.56" length="5.00" shape="518.44,424.63 519.54,423.81 520.64,423.53 521.74,423.80 522.83,424.62"/>
    </edge>
    <edge id=":1201048189_w0" function="walkingarea">
        <lane id=":1201048189_w0_0" index="0" allow="pedestrian" speed="1.00" length="4.99" width="3.20" shape="521.71,425.76 523.96,423.49 519.57,419.12 517.31,421.39 517.31,423.50 519.57,425.77"/>
    </edge>
    <edge id=":1201048191_0" function="internal">
        <lane id=":1201048191_0_0" index="0" allow="private passenger pedestrian" speed="5.56" length="6.20" shape="567.28,490.88 562.91,486.48"/>
    </edge>
    <edge id=":1201048191_1" function="internal">
        <lane id=":1201048191_1_0" index="0" allow="private passenger pedestrian" speed="5.56" length="5.05" shape="567.28,490.88 566.45,489.77 566.19,488.66 566.50,487.57 567.37,486.50"/>
    </edge>
    <edge id=":1201048191_w0" function="walkingarea">
        <lane id=":1201048191_w0_0" index="0" allow="pedestrian" speed="1.00" length="5.02" width="3.20" shape="566.15,492.01 568.41,489.75 568.46,487.67 566.29,485.32 564.04,485.36 561.77,487.61"/>
    </edge>
    <edge id=":1224148004_0" function="internal">
        <lane id=":1224148004_0_0" index="0" disallow="rail rail_electric ship" speed="13.89" length="0.30" shape="360.39,410.29 360.61,410.51"/>
    </edge>
    <edge id=":1227247918_0" function="internal">
        <lane id=":1227247918_0_0" index="0" disallow="rail rail_electric ship" speed="8.33" length="6.22" shape="640.06,199.42 636.25,194.51"/>
    </edge>
    <edge id=":1227247918_1" function="internal">
        <lane id=":1227247918_1_0" index="0" disallow="rail rail_electric ship" speed="6.95" length="5.14" shape="640.62,194.80 639.47,195.65 638.35,195.88 637.28,195.50 636.25,194.51"/>
    </edge>
    <edge id=":1227247918_w0" function="walkingarea">
        <lane id=":1227247918_w0_0" index="0" allow="pedestrian" speed="1.00" length="5.09" width="3.20" shape="638.80,200.40 641.33,198.44 641.74,195.94 639.50,193.66 637.51,193.52 634.98,195.49"/>
    </edge>
    <edge id=":1227247919_0" function="internal">
        <lane id=":1227247919_0_0" index="0" disallow="rail rail_electric ship" speed="6.95" length="5.15" shape="693.96,150.71 692.90,149.92 691.77,149.65 690.59,149.90 689.35,150.66"/>
    </edge>
    <edge id=":1227247919_1" function="internal">
        <lane id=":1227247919_1_0" index="0" disallow="rail rail_electric ship" speed="8.33" length="6.22" shape="693.96,150.71 689.59,146.28"/>
    </edge>
    <edge id=":1227247919_w0" function="walkingarea">
        <lane id=":1227247919_w0_0" index="0" allow="pedestrian" speed="1.00" length="5.07" width="3.20" shape="692.82,151.83 695.10,149.58 690.73,145.16 688.45,147.41 688.34,149.42 690.35,151.91"/>
    </edge>
    <edge id=":1279682558_0" function="internal">
        <lane id=":1279682558_0_0" index="0" disallow="rail rail_electric ship" speed="8.33" length="0.30" shape="376.35,189.33 376.11,189.15"/>
    </edge>
    <edge id=":1279682558_1" function="internal">
        <lane id=":1279682558_1_0" index="0" disallow="rail rail_electric ship" speed="8.33" length="0.30" shape="378.09,186.51 378.33,186.69"/>
    </edge>
    <edge id=":1279682558_w0" function="walkingarea">
        <lane id=":1279682558_w0_0" index="0" allow="pedestrian" speed="1.00" length="2.30" width="3.20" shape="375.39,190.61 377.31,188.05 377.37,187.97 379.29,185.41 379.06,185.23 377.13,187.79 377.07,187.87 375.14,190.42"/>
    </edge>
    <edge id=":1279682568_0" function="internal">
        <lane id=":1279682568_0_0" index="0" disallow="rail rail_electric ship" speed="8.33" length="5.69" shape="375.68,177.58 371.69,181.64"/>
    </edge>