<?xml version="1.0" encoding="UTF-8"?>

<!-- generated on 11/20/17 10:26:22 by SUMO duarouter Version 0.31.0
<?xml version="1.0" encoding="UTF-8"?>

<configuration xmlns:xsi="http://www.w3.org/2001/XMLSchema-instance" xsi:noNamespaceSchemaLocation="http://sumo.dlr.de/xsd/duarouterConfiguration.xsd">

    <input>
        <net-file value="douai_multimodels.net.xml"/>
        <route-files value="trips.trips.xml"/>
    </input>

    <output>
        <output-file value="oute-file"/>
    </output>

    <processing>
        <ignore-errors value="true"/>
    </processing>

    <time>
        <begin value="0"/>
        <end value="550.0"/>
    </time>

    <report>
        <no-warnings value="true"/>
        <no-step-log value="true"/>
    </report>

</configuration>
-->

<routes xmlns:xsi="http://www.w3.org/2001/XMLSchema-instance" xsi:noNamespaceSchemaLocation="http://sumo.dlr.de/xsd/routes_file.xsd">
    <person id="0" depart="0.00">
        <walk edges="154199919#1 154199919#0 -84617991#1 106372926 106372867 90868572#2 90868572#1 90868572#0 -163642133#3 499126538#1 499126538#0 -60303479#0 83724814#0 83724814#1 98184838 150868725 98184841"/>
    </person>
    <person id="1" depart="1.00">
        <walk edges="60303479#0 499126538#0 -62880191#1 entrance_republique_south 73580757#3.0 gneE9 routeParking 104070117#1 104070111#0 104070116#0"/>
    </person>
    <person id="2" depart="2.00">
        <walk edges="153761058#1 153761058#0 499126538#1 -62880191#1 entrance_republique_south 73580757#3.0 gneE9 routeParking 62880164#3 routeCinema entrance_republique_north 62880208#1 62880208#0 91142700#2 91142700#1 91142700#0"/>
    </person>
    <person id="3" depart="3.00">
        <walk edges="RouteCinema 97373281#3 97373281#2 97373281#1 routeParkingOpp.21 routeParkingOpp.0 -62880191#0.9 entrance_republique_south -62880191#1 499126538#0 -60303479#0 83724814#0 -83724814#1"/>
    </person>
    <person id="4" depart="4.00">
        <walk edges="440601537#1 -60303479#1 -60303479#0 499126538#0 499126538#1 -163642133#3 90868572#0 90868572#1 90868572#2 440601534#1"/>
    </person>
    <person id="5" depart="5.00">
        <walk edges="routeParking 104070117#1 104070111#1 104070118#2"/>
    </person>
    <person id="6" depart="6.00">
        <walk edges="leave_republique_north RouteCinema 97373281#3 97373281#2 97373281#1 routeParkingOpp.21 routeParkingOpp.0 -62880191#0.9 entrance_republique_south -62880191#1 499126538#1 -163642133#3 163642133#2 -163642133#1 -163642133#0 98978962#0 98978962#1"/>
    </person>
    <person id="7" depart="7.00">
        <walk edges="-60303479#2 -60303479#1 -60303479#0 499126538#0 499126538#1 -163642133#3 90868572#0 90868572#1 90868572#2 440601534#0 440601533 440601532"/>
    </person>
    <person id="8" depart="8.00">
        <walk edges="parking_cinema_6 83724804#2 83724804#1"/>
    </person>
    <person id="9" depart="9.00">
        <walk edges="104070113#1 104070113#2 104070113#3 -104070116#0 104070112 routeCinema RouteCinema -83724804#0 -83724804#1 -83724804#2 -83724804#3 -83724804#4"/>
    </person>
    <person id="10" depart="10.00">
        <walk edges="60699196#0 90494899#0 90494899#1 131327461#2 499162625#1 499162625#2 499162625#3 499162626 91142700#2 91142700#1 91142700#0"/>
    </person>
    <person id="11" depart="11.00">
        <walk edges="routeParkingOpp.0 routeParkingOpp.21 97373281#1 97373281#2 97373281#3 RouteCinema entrance_republique_north 62880208#1 62880208#0 499162626 499162625#3 499162625#2 499162625#1 131327461#2 90494899#1 90494899#0 60699196#0 499162624#0 62880208#4 62880208#3"/>
    </person>
    <person id="12" depart="12.00">
        <walk edges="-163642133#0 -163642133#1 163642133#2 -163642133#3 499126538#1 -62880191#1 entrance_republique_south -62880191#0.9 routeParkingOpp.0 tranParkingOpp.13"/>
    </person>
    <person id="13" depart="13.00">
        <walk edges="29282492 499126537 499126536 499126538#0 -62880191#1 entrance_republique_south -62880191#0.9 routeParkingOpp.0 routeParkingOpp.21 97373281#1 97373281#2 97373281#3 83724804#0 83724804#1 83724804#2 83724804#3 parking_cinema_9"/>
    </person>
    <person id="14" depart="14.00">
        <walk edges="154310120 -163642133#0 -163642133#1 163642133#2 -163642133#3 499126538#1 -62880191#1 entrance_republique_south 73580757#3.0 gneE9 routeParking 104070117#1 104070117#0"/>
    </person>
    <person id="15" depart="15.00">
        <walk edges="342182319 91142700#2 62880208#0 62880208#1 entrance_republique_north RouteCinema 83724804#0"/>
    </person>
    <person id="16" depart="16.00">
        <walk edges="98184837#0 150868727 98184841 150868725 98184838 83724814#1 83724814#0 -60303479#0 499126538#0 499126538#1 -163642133#3 163642133#2 -163642133#1 -163642133#0 154310120"/>
    </person>
    <person id="17" depart="17.00">
        <walk edges="-389580633#0 389580631 153761058#0 499126538#1 -62880191#1 entrance_republique_south 73580757#3.0 gneE9 routeParking 104070117#1 104070117#0 104070113#2 104070113#3 -104070116#1"/>
    </person>
    <person id="18" depart="18.00">
        <walk edges="98184840#1 60303480#0 61920533 150868727 98184841 150868725 98184838 83724814#1 83724814#0 -60303479#0 499126538#0 499126538#1 -163642133#3 163642133#2 -163642133#1 -163642133#0 98978962#0 98978962#1"/>
    </person>
    <person id="19" depart="19.00">
        <walk edges="104070113#3 -104070116#0 104070112 routeCinema RouteCinema 83724804#0 83724804#1 83724804#2 parking_cinema_7"/>
    </person>
    <person id="20" depart="20.00">
        <walk edges="440601537#1 -60303479#1 -60303479#0 499126538#0 -62880191#1 entrance_republique_south 73580757#3.0 gneE9 routeParking 62880164#3 104070115"/>
    </person>
    <person id="21" depart="21.00">
        <walk edges="62880208#1 62880208#0 91142700#2 91142700#1 91142700#0 99231456"/>
    </person>
    <person id="22" depart="22.00">
        <walk edges="104070109#1 104070119 104070113#0 90868569 90868573 106372926 106372867 90868572#2 90868572#1 90868572#0 163642133#2 163642133#1"/>
    </person>
    <person id="23" depart="23.00">
        <walk edges="499126538#0 -62880191#1 entrance_republique_south 73580757#3.0 gneE9 routeParking 62880164#3 routeCinema entrance_republique_north 62880208#1 62880208#0 91142700#2 342182319 154199917#1"/>
    </person>
    <person id="24" depart="24.00">
        <walk edges="-83724804#3 -83724804#2 -83724804#1 -83724804#0 97373281#3 97373281#2 97373281#1 routeParkingOpp.21 routeParkingOpp.0 -62880191#0.9 entrance_republique_south -62880191#1 499126538#1 -163642133#3 163642133#2 -163642133#1 -163642133#0"/>
    </person>
    <person id="25" depart="25.00">
        <walk edges="98184837#0 150868727 98184841 150868725 98184838 83724814#1 83724814#0 -60303479#0 499126538#0 -62880191#1 entrance_republique_south -62880191#0.9 routeParkingOpp.0 routeParkingOpp.21 97373281#1 97373281#2 97373281#3 RouteCinema leave_republique_north"/>
    </person>
    <person id="26" depart="26.00">
        <walk edges="499162624#1 60699196#0 90494899#0 90494899#1 131327461#2 499162625#1 499162625#2 499162625#3 499162626 62880208#0 62880208#1 entrance_republique_north routeCinema 104070112 104070111#0 104070111#1 -104070118#2 90868569 90868573"/>
    </person>
    <person id="27" depart="27.00">
        <walk edges="499162625#1 499162625#2 499162625#3 499162626 62880208#0 62880208#1 entrance_republique_north routeCinema 104070112 104070111#0 104070111#1 -104070118#2 90868569 90868573 106372926 106372867 90868572#2"/>
    </person>
    <person id="28" depart="28.00">
        <walk edges="104070113#3 104070113#2 104070117#0 104070117#1 routeParking gneE9 73580757#3.0 entrance_republique_south -62880191#1"/>
    </person>
    <person id="29" depart="29.00">
        <walk edges="98184838 83724814#1 83724814#0 -60303479#0 499126538#0 -62880191#1 entrance_republique_south 73580757#3.0 gneE9 routeParking 104070117#1 104070117#0 104070113#2 104070113#3"/>
    </person>
    <person id="30" depart="30.00">
        <walk edges="-98184840#0 60303480#0 61920533 150868727 98184841 150868725 98184838 83724814#1 83724814#0 -60303479#0 499126538#0 499126538#1 -163642133#3 90868572#0 90868572#1 90868572#2 106372867 106372926 -84617991#1 154199919#0"/>
    </person>
    <person id="31" depart="31.00">
        <walk edges="-99231456 90872224 499162625#3"/>
    </person>
    <person id="32" depart="32.00">
        <walk edges="154293232#1 -163642133#1 163642133#2 -163642133#3 499126538#1 -62880191#1 entrance_republique_south -62880191#0.9 routeParkingOpp.0 routeParkingOpp.21 97373281#1 97373281#2 97373281#3 83724804#0 parking_cinema_2 parking_cinema_1"/>
    </person>
    <person id="33" depart="33.00">
        <walk edges="104070116#0 104070111#0 104070117#1 routeParking gneE9 73580757#3.0 entrance_republique_south -62880191#1 499126538#1 -163642133#3 163642133#2 -163642133#1 154293232#1 154293232#0 -98978960"/>
    </person>
    <person id="34" depart="34.00">
        <walk edges="90874409 131327461#2 499162625#1 499162625#2 499162625#3 499162626 62880208#0 152669066 -84617991#0 154199919#0 154199919#1 154199919#2"/>
    </person>
    <person id="35" depart="35.00">
        <walk edges="parking_cinema_51 83724804#1 83724804#0 97373281#3 97373281#2 97373281#1 routeParkingOpp.21 routeParkingOpp.0 -62880191#0.9 entrance_republique_south leave_republique_south 62880191#0.0.118"/>
    </person>
    <person id="36" depart="36.00">
        <walk edges="440601537#1 -60303479#1 -60303479#0 499126538#0 -62880191#1 entrance_republique_south 73580757#3.0 gneE9 routeParking 104070117#1 104070117#0 104070113#1"/>
    </person>
    <person id="37" depart="37.00">
        <walk edges="389580633#1 389580631 153761058#0 499126538#1 -62880191#1 entrance_republique_south -62880191#0.9 routeParkingOpp.0 routeParkingOpp.21 97373281#1 97373281#2 97373281#3 83724804#0 83724804#1 83724804#2"/>
    </person>
    <person id="38" depart="38.00">
        <walk edges="104070116#0 104070111#0 104070117#1 routeParking gneE9 73580757#3.0 entrance_republique_south -62880191#1 499126538#0 -60303479#0 -83724814#0"/>
    </person>
    <person id="39" depart="39.00">
        <walk edges="trainCinemaOpp.196 73580749#0.0 routeCinema entrance_republique_north 62880208#1 62880208#0"/>
    </person>
    <person id="40" depart="40.00">
        <walk edges="leave_republique_south entrance_republique_south 73580757#3.0 gneE9 routeParking 62880164#3 routeCinema entrance_republique_north 62880208#1"/>
    </person>
    <person id="41" depart="41.00">
        <walk edges="131327461#1 131327461#2 499162625#1 499162625#2 499162625#3 499162626 62880208#0 62880208#1 entrance_republique_north routeCinema 62880164#3 routeParking gneE9 73580757#3.0 entrance_republique_south -62880191#1 499126538#1 -163642133#3 163642133#2 -163642133#1 -163642133#0 154310120"/>
    </person>
    <person id="42" depart="42.00">
        <walk edges="61920531 98184837#2 302456408 83724814#1 83724814#0 -60303479#0 499126538#0 -62880191#1 entrance_republique_south 73580757#3.0 gneE9 routeParking 62880164#3 routeCinema entrance_republique_north"/>
    </person>
    <person id="43" depart="43.00">
        <walk edges="499126537 499126536 499126538#0 -62880191#1 entrance_republique_south 73580757#3.0 gneE9 routeParking 62880164#3 routeCinema entrance_republique_north 62880208#1 62880208#0 499162626 499162625#3 499162625#2 499162625#1 131327461#2 90494899#1 90494899#0 60699196#1"/>
    </person>
    <person id="44" depart="44.00">
        <walk edges="302456408 83724814#1 83724814#0 -60303479#0 499126538#0 -62880191#1 entrance_republique_south 73580757#3.0 gneE9 routeParking 62880164#3 routeCinema entrance_republique_north 62880208#2"/>
    </person>
    <person id="45" depart="45.00">
        <walk edges="83724804#2 parking_cinema_41 parking_cinema_50"/>
    </person>
    <person id="46" depart="46.00">
        <walk edges="60699196#0 90494899#0 90494899#1 131327461#2 499162625#1 499162625#2 499162625#3 499162626 62880208#0 62880208#1 entrance_republique_north routeCinema 62880164#3 routeParking gneE9 73580757#3.0 entrance_republique_south -62880191#1 499126538#0 -60303479#0 83724814#0 83724814#1 98184838 150868725 98184841 150868727 90645325 41770951 41770954"/>
    </person>
    <person id="47" depart="47.00">
        <walk edges="-302456407 302456408 83724814#1 83724814#0 -60303479#0 499126538#0 -62880191#1 entrance_republique_south 73580757#3.0 gneE9 routeParking 62880164#3 routeCinema entrance_republique_north 62880208#1 62880208#0 91142700#2 91142700#1 91142700#0 -48010265 60699191"/>
    </person>
    <person id="48" depart="48.00">
        <walk edges="98184837#1 302456408 83724814#1 83724814#0 -60303479#0 499126538#0 -62880191#1 entrance_republique_south 73580757#3.0 gneE9 routeParking 62880164#3 routeCinema entrance_republique_north 62880208#1 62880208#0 499162626 499162625#3 499162625#2 499162625#1 131327461#2 90494899#1 90494899#0 60699196#0"/>
    </person>
    <person id="49" depart="49.00">
        <walk edges="499162624#0 60699196#0 90494899#0 90494899#1 131327461#2 499162625#1 499162625#2 499162625#3 499162626 62880208#0 62880208#1 entrance_republique_north routeCinema 62880164#3 routeParking gneE9 73580757#3.0 entrance_republique_south -62880191#1 499126538#0 -60303479#0"/>
    </person>
    <person id="50" depart="50.00">
        <walk edges="104070109#1 104070114 104070113#2 104070117#0"/>
    </person>
    <person id="51" depart="51.00">
        <walk edges="98978963 153761058#2 29282492"/>
    </person>
    <person id="52" depart="52.00">
        <walk edges="-60303479#2 -60303479#1 -60303479#0 499126538#0 -62880191#1 entrance_republique_south -62880191#0.9 routeParkingOpp.0 routeParkingOpp.21 97373281#1 97373281#2 97373281#3 -83724804#0"/>
    </person>
    <person id="53" depart="53.00">
        <walk edges="440601537#1 -60303479#1 83724814#0 83724814#1 98184838 150868725 98184841 150868727"/>
    </person>
    <person id="54" depart="54.00">
        <walk edges="98184840#0 41770954 41770951 90645325 150868727 98184841 150868725 98184838 83724814#1 83724814#0 -60303479#0 499126538#0 -62880191#1 entrance_republique_south 73580757#3.0 gneE9 routeParking 62880164#3 routeCinema entrance_republique_north 62880208#1 62880208#0 91142700#2 91142700#1 91142700#0"/>
    </person>
    <person id="55" depart="55.00">
        <walk edges="-62880191#1 entrance_republique_south 73580757#3.0 gneE9 routeParking 62880164#3 routeCinema entrance_republique_north 62880208#1 62880208#0 91142700#2 91142700#1 91142700#0"/>
    </person>
    <person id="56" depart="56.00">
        <walk edges="104070113#2 104070117#0 104070117#1 routeParking gneE9 73580757#3.0 entrance_republique_south -62880191#1 499126538#1 153761058#0 389580631 389580633#0"/>
    </person>
    <person id="57" depart="57.00">
        <walk edges="90494899#1 131327461#2 499162625#1 499162625#2 499162625#3 499162626 62880208#0 62880208#1 entrance_republique_north routeCinema 62880164#3 routeParking gneE9 73580757#3.0 entrance_republique_south -62880191#1 499126538#0 -60303479#0 83724814#0 83724814#1 98184838 150868725 98184841"/>
    </person>
    <person id="58" depart="58.00">
        <walk edges="97373281#3 97373281#2 97373281#1 routeParkingOpp.21 routeParkingOpp.0 -62880191#0.9 entrance_republique_south -62880191#1 499126538#0 -60303479#0 -60303479#1 440601537#0"/>
    </person>
    <person id="59" depart="59.00">
        <walk edges="499162625#2 499162625#3 499162626 62880208#0 62880208#1 entrance_republique_north routeCinema 62880164#3 routeParking gneE9 73580757#3.0 73580757#3.141"/>
    </person>
    <person id="60" depart="60.00">
        <walk edges="98184837#0 150868727 98184841 150868725 98184838 83724814#1 83724814#0 -60303479#0 499126538#0 499126538#1 -163642133#3 163642133#2 -163642133#1 -163642133#0 98978962#0"/>
    </person>
    <person id="61" depart="61.00">
        <walk edges="90874409 131327461#2 499162625#1 499162625#2 499162625#3 499162626 62880208#0 62880208#1 entrance_republique_north routeCinema 62880164#3 routeParking gneE9 73580757#3.0 entrance_republique_south -62880191#1 499126538#1 153761058#0 389580631 389580633#1"/>
    </person>
    <person id="62" depart="62.00">
        <walk edges="-60303479#0 499126536 499126537 153761058#2 153761058#1"/>
    </person>
    <person id="63" depart="63.00">
        <walk edges="90868572#1 90868572#0 -163642133#3 499126538#1 -62880191#1 entrance_republique_south -62880191#0.9 routeParkingOpp.0 routeParkingOpp.21 97373281#1 97373281#2 97373281#3 RouteCinema leave_republique_north"/>
    </person>
    <person id="64" depart="64.00">
        <walk edges="routeParkingOpp.0 -62880191#0.9 73580757#3.0 gneE9 routeParking"/>
    </person>
    <person id="65" depart="65.00">
        <walk edges="83724804#3 83724804#2 83724804#1 83724804#0 RouteCinema entrance_republique_north 62880208#1 62880208#0 499162626 499162625#3 499162625#2 499162625#1 131327461#2 90494899#1"/>
    </person>
    <person id="66" depart="66.00">
        <walk edges="106372867 106372926 90868573 90868569 -104070118#2 104070111#1 104070111#0 104070112 routeCinema"/>
    </person>
    <person id="67" depart="67.00">
        <walk edges="90874409 131327461#2 499162625#1 499162625#2 499162625#3 499162626 62880208#0 62880208#1 entrance_republique_north routeCinema"/>
    </person>
    <person id="68" depart="68.00">
        <walk edges="389580633#0 -389580633#0 389580631 153761058#0 499126538#1 -62880191#1 entrance_republique_south 73580757#3.0 gneE9 routeParking 104070117#1 104070117#0 104070113#1 104070119"/>
    </person>
    <person id="69" depart="69.00">
        <walk edges="-98978960 154293232#0 154293232#1 -163642133#1 163642133#2 -163642133#3 499126538#1 499126538#0 -60303479#0 83724814#0 83724814#1 98184838 150868725 98184841 150868727 61920533 60303480#0 98184840#0"/>
    </person>
    <person id="70" depart="70.00">
        <walk edges="62880164#3 routeCinema 73580749#0.0 trainCinemaOpp.196"/>
    </person>
    <person id="71" depart="71.00">
        <walk edges="104070112 routeCinema RouteCinema 83724804#0 parking_cinema_3"/>
    </person>
    <person id="72" depart="72.00">
        <walk edges="499162624#1 60699196#0 90494899#0 90494899#1 131327461#2 499162625#1 499162625#2 499162625#3 90872224 -48010265 -60699191"/>
    </person>
    <person id="73" depart="73.00">
        <walk edges="73580757#3.141 440601535 440601534#1 106372867"/>
    </person>
    <person id="74" depart="74.00">
        <walk edges="112621270#0 -62880191#1 499126538#0 -60303479#0 83724814#0 83724814#1 98184838 150868725 98184841 150868727"/>
    </person>
    <person id="75" depart="75.00">
        <walk edges="-163642133#1 163642133#2 -163642133#3 499126538#1 -62880191#1 leave_republique_south 62880191#0.0.118"/>
    </person>
    <person id="76" depart="76.00">
        <walk edges="60303479#2 -60303479#1 -60303479#0 499126538#0 -62880191#1 entrance_republique_south 73580757#3.0 gneE9 routeParking 104070117#1 104070117#0"/>
    </person>
    <person id="77" depart="77.00">
        <walk edges="parking_cinema_8 83724804#3 83724804#2 83724804#1 83724804#0 97373281#3 97373281#2 97373281#1 routeParkingOpp.21 routeParkingOpp.0"/>
    </person>
    <person id="78" depart="78.00">
        <walk edges="150720867#1 106696101 98184837#1 302456408 83724814#1 83724814#0 -60303479#0 499126538#0 499126538#1 -163642133#3 90868572#0 90868572#1 90868572#2 106372867 106372926 90868573"/>
    </person>
    <person id="79" depart="79.00">
        <walk edges="83724814#0 -60303479#0 499126538#0 -62880191#1 entrance_republique_south -62880191#0.9 routeParkingOpp.0 routeParkingOpp.21 97373281#1 97373281#2 97373281#3 RouteCinema"/>
    </person>
    <person id="80" depart="80.00">
        <walk edges="302456408 83724814#1 83724814#0 -60303479#0 499126538#0 -62880191#1 entrance_republique_south 73580757#3.0 gneE9 routeParking 62880164#3 routeCinema entrance_republique_north 62880208#1 62880208#0 499162626 499162625#3 499162625#2 499162625#1 131327461#2 90494899#1 90494899#0 60699196#1"/>
    </person>
    <person id="81" depart="81.00">
        <walk edges="83724804#2 83724804#1 83724804#0 RouteCinema entrance_republique_north 62880208#1 62880208#0 499162626 499162625#3 499162625#2 499162625#1 131327461#2 131327461#1"/>
    </person>
    <person id="82" depart="82.00">
        <walk edges="73580749#0.0 routeCinema 62880164#3 routeParking gneE9 73580757#3.0 entrance_republique_south -62880191#1 499126538#0 -60303479#0 83724814#0 83724814#1 98184838 150868725 98184841 150868727 61920533 60303480#0 98184840#0"/>
    </person>
    <person id="83" depart="83.00">
        <walk edges="41770951 90645325 150868727 98184841 150868725 98184838 83724814#1 83724814#0 -60303479#0 499126538#0 499126538#1 153761058#0"/>
    </person>
    <person id="84" depart="84.00">
        <walk edges="150720867#2 61920531 98184837#2 302456408 83724814#1 83724814#0 -60303479#0 499126538#0 499126538#1 -163642133#3 163642133#2"/>
    </person>
    <person id="85" depart="85.00">
        <walk edges="104070116#0 104070112 routeCinema entrance_republique_north 62880208#1 62880208#0 91142700#2 91142700#1 91142700#0 -48010265"/>
    </person>
    <person id="86" depart="86.00">
        <walk edges="-98184840#1 60303480#0 61920533 150868727 98184841 150868725 98184838 83724814#1 83724814#0 -60303479#0 499126538#0 -62880191#1 entrance_republique_south 73580757#3.0 gneE9 routeParking 62880164#3 routeCinema entrance_republique_north 62880208#1 62880208#0 499162626 90872224"/>
    </person>
    <person id="87" depart="87.00">
        <walk edges="91142700#1 91142700#0 48010265"/>
    </person>
    <person id="88" depart="88.00">
        <walk edges="154199919#0 -84617991#1 106372926 106372867 90868572#2 90868572#1 90868572#0 -163642133#3 499126538#1 499126538#0 -60303479#0 -60303479#1 -60303479#2"/>
    </person>
    <person id="89" depart="89.00">
        <walk edges="84617991#1 -84617991#0 152669066 62880208#0 499162626 499162625#3 499162625#2 499162625#1 131327461#2 90494899#1 90494899#0 60699196#0"/>
    </person>
    <person id="90" depart="90.00">
        <walk edges="73580749#0.0 routeCinema entrance_republique_north 62880208#1 62880208#0 499162626 499162625#3 499162625#2 499162625#1 131327461#2 90494899#1"/>
    </person>
    <person id="91" depart="91.00">
        <walk edges="trainCinemaOpp.196 73580749#0.0 routeCinema 62880164#3 routeParking gneE9 73580757#3.0 entrance_republique_south -62880191#1 499126538#0 -60303479#0 83724814#0 83724814#1 302456408 98184837#1 106696101 150720867#0"/>
    </person>
    <person id="92" depart="92.00">
        <walk edges="parking_cinema_9 parking_cinema_6 83724804#2 83724804#1 83724804#0 RouteCinema entrance_republique_north 62880208#1 62880208#0 499162626 499162625#3 499162625#2 499162625#1 131327461#2 90494899#1 90494899#0 60699196#1 91046962#0 60699205"/>
    </person>
    <person id="93" depart="93.00">
        <walk edges="91142700#0 91142700#1 342182319 154199917#1 154199917#0 -84617991#0 154199919#0 83717016"/>
    </person>
    <person id="94" depart="94.00">
        <walk edges="90868569 90868573 106372926 106372867 90868572#2 90868572#1 90868572#0 -163642133#3 499126538#1 499126538#0 -60303479#0 -60303479#1 60303479#2"/>
    </person>
    <person id="95" depart="95.00">
        <walk edges="-60303479#0 499126538#0 -62880191#1 entrance_republique_south -62880191#0.9 routeParkingOpp.0 routeParkingOpp.21 97373281#1 97373281#2 97373281#3 83724804#0 83724804#1 83724804#2 parking_cinema_6 parking_cinema_8"/>
    </person>
    <person id="96" depart="96.00">
        <walk edges="153761058#0 153761058#1 153761058#2 29282492"/>
    </person>
    <person id="97" depart="97.00">
        <walk edges="154199917#1 154199917#0 -84617991#0 -84617991#1 106372926 106372867 90868572#2 90868572#1 90868572#0 -163642133#3 499126538#1 499126538#0 -60303479#0 83724814#0 -83724814#1"/>
    </person>
    <person id="98" depart="98.00">
        <walk edges="90868569 90868573 106372926 106372867 90868572#2 90868572#1 90868572#0 163642133#2 -163642133#1 -163642133#0 98978962#0 98978962#1"/>
    </person>
    <person id="99" depart="99.00">
        <walk edges="104070113#1 104070113#0 90868569 90868573 106372926 106372867 440601534#1 440601535"/>
    </person>
    <person id="100" depart="100.00">
        <walk edges="98184837#2 302456408 83724814#1 83724814#0 -60303479#0 499126538#0 499126538#1 163642133#3"/>
    </person>
    <person id="101" depart="101.00">
        <walk edges="-98184840#0 60303480#0 61920533 150868727 98184841 150868725 98184838 83724814#1 83724814#0 -60303479#0 499126538#0 499126538#1 -163642133#3 90868572#0 90868572#1 90868572#2 106372867 106372926 90868573 90868569 104070118#0 104070109#2"/>
    </person>
    <person id="102" depart="102.00">
        <walk edges="routeParkingOpp.0 routeParkingOpp.21 97373281#1 97373281#2 97373281#3 RouteCinema entrance_republique_north 62880208#1 62880208#0 499162626 499162625#3 499162625#2 499162625#1 131327461#2"/>
    </person>
    <person id="103" depart="103.00">
        <walk edges="parking_cinema_6 83724804#2 83724804#1 83724804#0 97373281#3 97373281#2 97373281#1 routeParkingOpp.21 routeParkingOpp.0"/>
    </person>
    <person id="104" depart="104.00">
        <walk edges="499126537 499126536 499126538#0 -62880191#1 entrance_republique_south -62880191#0.9 routeParkingOpp.0 routeParkingOpp.21 97373281#1 97373281#2 97373281#3 83724804#0 83724804#1 83724804#2 parking_cinema_7"/>
    </person>
    <person id="105" depart="105.00">
        <walk edges="-62880191#0.9 routeParkingOpp.0 routeParkingOpp.21 97373281#1 97373281#2 97373281#3 83724804#0 83724804#1 parking_cinema_51"/>
    </person>
    <person id="106" depart="106.00">
        <walk edges="104070109#1 104070114 104070113#3 -104070116#0 104070112 routeCinema entrance_republique_north 62880208#1 62880208#0 91142700#2 91142700#1 91142700#0 -61920536"/>
    </person>
    <person id="107" depart="107.00">
        <walk edges="153761058#0 499126538#1 -62880191#1 entrance_republique_south 73580757#3.0 gneE9 routeParking 62880164#3 routeCinema entrance_republique_north 62880208#1 62880208#0 91142700#2 91142700#1 91142700#0 61920536"/>
    </person>
    <person id="108" depart="108.00">
        <walk edges="29282492 499126537 499126536 -60303479#0 -60303479#1 440601537#0"/>
    </person>
    <person id="109" depart="109.00">
        <walk edges="104070115 -104070116#0 104070113#3 104070113#2 104070113#1"/>
    </person>
    <person id="110" depart="110.00">
        <walk edges="499126538#1 -163642133#3 90868572#0 90868572#1 90868572#2 106372867 106372926 90868573 90868569 104070118#2"/>
    </person>
    <person id="111" depart="111.00">
        <walk edges="29282492 499126537 499126536 499126538#0 -62880191#1 entrance_republique_south 73580757#3.0 gneE9 routeParking 62880164#3 routeCinema entrance_republique_north 62880208#1 62880208#0 91142700#2 91142700#1 91142700#0 99231456"/>
    </person>
    <person id="112" depart="112.00">
        <walk edges="499126536 499126538#0 499126538#1 -163642133#3 163642133#2 -163642133#1 -163642133#0 -154310120"/>
    </person>
    <person id="113" depart="113.00">
        <walk edges="parking_cinema_3 83724804#1 83724804#2 83724804#3 parking_cinema_9"/>
    </person>
    <person id="114" depart="114.00">
        <walk edges="499126536 499126538#0 -62880191#1 entrance_republique_south -62880191#0.9 routeParkingOpp.0 routeParkingOpp.21 97373281#1 97373281#2 97373281#3 83724804#0"/>
    </person>
    <person id="115" depart="115.00">
        <walk edges="98184837#1 302456408 83724814#1 83724814#0 -60303479#0 499126538#0 -62880191#1 entrance_republique_south 73580757#3.0 gneE9 routeParking 62880164#3 routeCinema entrance_republique_north 62880208#1 62880208#0 499162626 499162625#3 499162625#2 499162625#1"/>
    </person>
    <person id="116" depart="116.00">
        <walk edges="163642133#0 -163642133#1 163642133#2 -163642133#3 499126538#1 -62880191#1 entrance_republique_south 73580757#3.0 gneE9 routeParking 62880164#3 routeCinema entrance_republique_north 62880208#1 62880208#0 499162626 499162625#3 499162625#2 499162625#1 131327461#2 90494899#1 90494899#0 60699196#1 -98184840#2"/>
    </person>
    <person id="117" depart="117.00">
        <walk edges="60699205 91046962#0 60699196#1 90494899#0 90494899#1 131327461#2 499162625#1 499162625#2 499162625#3 499162626 62880208#0 62880208#1 entrance_republique_north routeCinema 62880164#3 routeParking gneE9 73580757#3.0 entrance_republique_south -62880191#1 499126538#0 -60303479#0 83724814#0 83724814#1 98184838 150868725 98184841 150868727 90645325 41770951"/>
    </person>
    <person id="118" depart="118.00">
        <walk edges="entrance_republique_north routeCinema 62880164#3 routeParking gneE9 73580757#3.0 entrance_republique_south -62880191#1 499126538#0 -60303479#0 -60303479#1 -60303479#2"/>
    </person>
    <person id="119" depart="119.00">
        <walk edges="499126538#1 -62880191#1"/>
    </person>
    <person id="120" depart="120.00">
        <walk edges="-83724804#0 97373281#3 97373281#2 97373281#1 routeParkingOpp.21 routeParkingOpp.0 -62880191#0.9 entrance_republique_south -62880191#1 499126538#1 -163642133#3 163642133#2 -163642133#1 154293232#1 154293232#0 98978960"/>
    </person>
    <person id="121" depart="121.00">
        <walk edges="104070109#1 104070119 104070113#0 90868569 90868573 106372926"/>
    </person>
    <person id="122" depart="122.00">
        <walk edges="-60699191 -48010265 91142700#0 91142700#1 91142700#2 62880208#0 62880208#1 entrance_republique_north routeCinema 104070112 -104070116#0 104070113#3 104070113#2 104070113#1"/>
    </person>
    <person id="123" depart="123.00">
        <walk edges="98184840#0 41770954 41770951 90645325 150868727 98184841 150868725 98184838 83724814#1 83724814#0 -60303479#0 499126538#0 -62880191#1 leave_republique_south 62880191#0.0.118"/>
    </person>
    <person id="124" depart="124.00">