<?xml version="1.0"?>
<!-- generated on 2017-11-23 11:33:54.651922 by $Id: randomTrips.py 25741 2017-08-30 11:58:01Z behrisch $
  options: -n douai_multimodels.net.xml -e 20 <doubleminus>route-file <doubleminus>route-file -r TrafficDemand.rou.xml
-->
<routes xmlns:xsi="http://www.w3.org/2001/XMLSchema-instance" xsi:noNamespaceSchemaLocation="http://sumo.dlr.de/xsd/routes_file.xsd">
    <trip id="0" depart="0.00" from="90868572#1" to="entrance_republique_south"/>
    <trip id="1" depart="1.00" from="parking_cinema_0" to="98978962#0"/>
    <trip id="2" depart="2.00" from="98184841" to="parking_cinema_3"/>
    <trip id="3" depart="3.00" from="104070118#2" to="-104070118#2"/>
    <trip id="4" depart="4.00" from="-163642133#0" to="389580631"/>
    <trip id="5" depart="5.00" from="61920531" to="-48010265"/>
    <trip id="6" depart="6.00" from="-73580757#5" to="98184840#0"/>
    <trip id="7" depart="7.00" from="98184840#1" to="163642133#3"/>
    <trip id="8" depart="8.00" from="parking_cinema_51" to="150720867#1"/>
    <trip id="9" depart="9.00" from="83724814#1" to="163642133#2"/>
    <trip id="10" depart="10.00" from="parking_cinema_8" to="150868725"/>
    <trip id="11" depart="11.00" from="104070113#3" to="98978963"/>
    <trip id="12" depart="12.00" from="29282492" to="499162625#2"/>
    <trip id="13" depart="13.00" from="150868727" to="parking_cinema_51"/>
    <trip id="14" depart="14.00" from="RouteCinema" to="-83724804#2"/>
    <trip id="15" depart="15.00" from="499126536" to="83724804#1"/>
    <trip id="16" depart="16.00" from="499126538#0" to="83724814#0"/>
    <trip id="17" depart="17.00" from="61920531" to="499126536"/>
    <trip id="18" depart="18.00" from="389580633#0" to="62880191#1"/>
    <trip id="19" depart="19.00" from="104070115" to="-83724802#1"/>
</routes>
